data_Felix.cif.15-08-2016
_chemical_name_systematic 'Tricalcium dimanganate(IV)' 
_chemical_formula_structural 'Ca3 (Mn2 O7)' 
_chemical_formula_sum 'Ca3 Mn2 O7' 

_publ_section_comment
;
R Beanland 8 September 2015 
Based on Lobanov structure 
;
_cell_length_a 19.4462
_cell_length_b 5.2453
_cell_length_c 5.2399
_cell_angle_alpha 90.
_cell_angle_beta 90.
_cell_angle_gamma 90.
_cell_formula_units_Z 4
_symmetry_space_group_name_H-M 'C m c 21' 
_symmetry_Int_Tables_number 36

loop_
_symmetry_equiv_pos_site_id
_symmetry_equiv_pos_as_xyz
1 x,-y,z+1/2
2 -x,-y,z+1/2
3 -x,y,z
4 x,y,z
5 x+1/2,-y+1/2,z+1/2
6 -x+1/2,-y+1/2,z+1/2
7 -x+1/2,y+1/2,z
8 x+1/2,y+1/2,z

loop_
_atom_site_label
_atom_site_type_symbol
_atom_site_symmetry_multiplicity
_atom_site_Wyckoff_symbol
_atom_site_fract_x
_atom_site_fract_y
_atom_site_fract_z
_atom_site_B_iso_or_equiv
_atom_site_occupancy
Ca1 Ca2+ 6 a 0.0000  0.2667  0.7273  0.4219  1.030
Ca2 Ca2+ 6 b 0.1862  0.2677  0.7578  0.3833  1.027
Mn1 Mn4+ 8 b 0.0978  0.2484  0.2451  0.2188  1.035
O1 O2- 4 a 0.0000  0.3103  0.2567  1.2445  0.981
O2 O2- 8 b 0.1049  0.5273  0.0254  0.9500  0.949
O3 O2- 8 b 0.0888  0.0256  0.9662  1.2728  0.976
O4 O2- 8 b 0.1969  0.1990  0.2405  0.9416  0.978
#End of Felix.cif.15-08-2016
